'-OXYDIPHENYLAMINE
'-OXYDIPHENYLENE-PYROMELLITIMIDE
ACRYLONITRILE BUTADIENE STYRENE
ACRYLONITRILE BUTADIENE STYRENE
ABS PART
DACRON MESH CLOTH
DUPONT
E. I. DU PONT DE NEMOUR
FAA STUDY
HN
JAMES WEBB SPACE TELESCOPE
KAPTO
KAPTON
KAPTON
KAPTON
KAPTON
KAPTON
KAPTON
KAPTON
KAPTON
KAPTON
KAPTON
KAPTON
KAPTON
KAPTON
KAPTON
KAPTON
KAPTON K
KAPTON FILM
KAPTON INSULATION AGE
KAPTON SURFACE
KAPTON SYNTHESIS
KAPTON TAPE
KAPTON TAPE
KAPTON-INSULATED ELECTRICAL WIRING
KAPTON-INSULATED WIRING
KAPTON-WIRE DEGRADATION
LM STAGING
LUNAR MODULE
LUNAR MODULE ASCENT STAGE
NASA INTERNAL REPORT
NEW HORIZON
SOYUZ SPACECRAFT
SPACE STATION
X-RAY DETECTOR
X-RAY SOURCE
X-RAY TUBE
X-RAY
ABRASION
AIRCRAFT MODEL
AIRCRAFT MOVEMENT
ALUMINIZED KAPTON FOIL
ASCENT ENGINE
ASCENT STAGE
CHEMICAL NAME
KAPTON K CHEMICAL NAME
CONDENSATION
PYROMELLITIC DIANHYDRIDE CONDENSATION
CONSIDERED KAPTON
CRYOGENIC
DESCENT STAGE
DIANHYDRIDE
DIELECTRIC QUALITY
DWARF PLANET PLUTO
ELECTRICAL INSULATION
ELECTRICAL ISOLATION ABILITY
ELECTRONIC MANUFACTURING
ELECTROSTATIC SENSITIVE
EXTRUSION PRINTING
FINAL CONSUMER PRODUCT
FINAL RESULT
GEL
EXTRUSION PRINTING GEL
HYDROGEN BOND
INCLUDING KAPTON
INSULATION
INSULATION
INSULATION
KELVIN
MECHANICAL WEAR
MICROMETEORITE
MILITARY AIRCRAFT
MULTILAYERED THERMAL INSULATION
NINE-YEAR
ORBITAL COMPLEX
OUTGASSING RATE
POLAR SOLVENT
POLY(AMIC ACID)
POLYETHERIMIDE SURFACE
POLYIMIDE FILM
POLYMER
PRODUCTION PROCESS
PROTECTION LAYER
PYROMELLITIC DIANHYDRIDE
RADIATION DAMAGE
REFLOW SOLDERING OPERATION
RETURN JOURNEY
REWIRING MODIFICATION
RING CLOSURE
ROTARY WING AIRCRAFT
SEAWATER
SOLAR SAIL
SPACE ENVIRONMENT
SPACE INSTRUMENT
SPACE SHUTTLE
STEP POLYMERIZATION
SUNSHIELD
JAMES WEBB SPACE TELESCOPE SUNSHIELD
SYNCHROTRON BEAM-LINE
TEMPERATURE CHARACTERISTIC
TEMPERATURE STABILITY
THERMAL BLANKET
THERMAL CONDUCTIVITY
KAPTON THERMAL CONDUCTIVITY
THERMAL GRADIENT
THERMAL INSULATION
THERMAL STABILITY
TRANSMITTANCE
ULTRA-HIGH VACUUM ENVIRONMENT
PART
E. I. DU PONT DE
DU
DE
STUDY
KAPTON
KAPTON
FILM
KAPTON INSULATION
KAPTON
SYNTHESIS
KAPTON
TAPE
KAPTON
TAPE
ELECTRICAL WIRING
KAPTON-INSULATED
DEGRADATION
INTERNAL REPORT
STATION
MOVEMENT
KAPTON FOIL
ASCENT
ENGINE
ASCENT
KAPTON
PLANET PLUTO
INSULATION
CONSUMER PRODUCT
RESULT
KAPTON
THERMAL INSULATION
FILM
LAYER
DIANHYDRIDE
DAMAGE
SOLDERING OPERATION
JOURNEY
CLOSURE
SHUTTLE
POLYMERIZATION
INSULATION
