AG
AGCL
COMMERCIAL REFERENCE ELECTRODE
DC OFFSET
DC SYSTEM
ELECTROCARDIOGRAPHY
EEG INSTRUMENT
IUPAC REVIEW PAPER
KCL
NERNST EQUATION
SILVER CHLORIDE
SILVER CHLORIDE
SILVER CHLORIDE ELECTROD
SILVER/SILVER CHLORIDE
ANION
APPLICATION
APPLICATION
BIOLOGICAL ELECTRODE SYSTEM APPLICATION
BIOLOGICAL ELECTRODE SYSTEM
BIOLOGICAL ELECTRODE
BIOMONITORING ELECTRODE
BIOMONITORING SENSOR
CALLED SILVER(I
CATHODIC DEPOSITION
SILVER-ION CATHODIC DEPOSITION
CATHODIC PROTECTION CORROSION CONTROL SYSTEM
CATION
CHLORIDE
CHLORIDE CONCENTRATION
CHLORIDE SOLUTION
CHLORIDE-ION
CONCENTRATION
CHLORIDE-ION CONCENTRATION
CONCENTRATION
CONCENTRATION
CONDUCTIVE
ION CONDUCTIVE
CORRELATION
DISTRIBUTION
CATION DISTRIBUTION
ELECTROCARDIOGRAPHY
ELECTROCHEMICAL MEASUREMENT
ELECTRODE FUNCTION
ELECTRODE POTENTIAL
ELECTRODE POTENTIAL
ELECTROENCEPHALOGRAPHY
ELECTROLYTE
ELECTROLYTE
ELECTROLYTE
ELECTROLYTE
ELECTROLYTE
ELECTROLYTE COMPOSITION
ELECTROLYTE CONCENTRATION CHANGE
ELECTROLYTE CONCENTRATION CHANGE
ELECTROLYTE GEL
ELECTROLYTE TRAVEL
ELEVATED TEMPERATURE
ENVIRONMENTAL REASON
EQUILIBRIUM
FIXED
GEL
HALF-CELL
HALF-CELL POTENTIAL
HALF-CELL POTENTIAL
HALF-REACTION
HIGH-TEMPERATURE POTENTIAL
HYDROCHLORIC ACID
IMPEDANCE
INTERNAL REFERENCE ELECTRODE
ION
ION
ION
LEAD WIRE
LEAD WIRE
LEAD WIRE
LEAD WIRE
LEAD WIRE
MEASURING INSTRUMENT
MOL/KG
MOL/KG POTASSIUM CHLORIDE
MOLTEN SILVER CHLORIDE
PH METER
PH VALUE
PLASTIC SUBSTRATE
PLASTIC TUBE ELECTRODE BODY
POPULAR CHOICE
BIOLOGICAL ELECTRODE POPULAR CHOICE
POROUS PLUG
POTASSIUM CHLORIDE
POTASSIUM CHLORIDE
POTASSIUM CHLORIDE
POTASSIUM CHLORIDE
POTASSIUM CHLORIDE SOLUTION
POTASSIUM CHLORIDE SOLUTION
POTENTIAL E
POTENTIAL MEASUREMENT
REDOX ELECTRODE
REDOX REACTION
REFERENCE ELECTRODE
REFERENCE ELECTRODE
SALINITY
SATURATED POTASSIUM CHLORIDE ELECTROLYTE
SATURATED POTASSIUM CHLORIDE ELECTROLYTE
SEA WATER ENVIRONMENT
SEAWATER
SEAWATER
SILVER
SILVER
SILVER
SILVER
SILVER
SILVER
SILVER
SILVER CHLORIDE
SILVER CHLORIDE
SILVER CHLORIDE
SILVER CHLORIDE
SILVER CHLORIDE
SILVER CHLORIDE
SILVER CHLORIDE
SILVER CHLORIDE
SILVER CHLORIDE CONCENTRATION
SILVER CHLORIDE ELECTROLYTE
SILVER CHLORIDE REFERENCE ELECTRODE
SILVER-ION
SILVER-SILVER(I) CHLORIDE ELECTRODE
SILVER/SILVER CHLORIDE SENSOR
SILVER/SILVER CHLORIDE SENSORS OPERATION
TEST WIRE
TRANSCUTANEOUS ELECTRICAL NERVE STIMULATION
VOLTMETER NEGATIVE LEAD
STANDARD HYDROGEN ELECTRODE
SHE
ECG
EEG
TENS
COMMERCIAL REFERENCE
REVIEW PAPER
EQUATION
CHLORIDE ELECTROD
BIOLOGICAL ELECTRODE
SENSORS
SILVER(I
DEPOSITION
CATHODIC PROTECTION CORROSION CONTROL
CONCENTRATION
SOLUTION
COMPOSITION
ELECTROLYTE CONCENTRATION
ELECTROLYTE CONCENTRATION
TRAVEL
LEAD
LEAD
LEAD
LEAD
LEAD
MOL/KG
CHOICE
PLUG
E
REACTION
REFERENCE
REFERENCE
SEA
CHLORIDE CONCENTRATION
SILVER/SILVER CHLORIDE
CHLORIDE SENSORS
SILVER/SILVER CHLORIDE
CHLORIDE SENSORS OPERATION
SENSORS OPERATION
ELECTRICAL NERVE STIMULATION
NERVE STIMULATION
NEGATIVE LEAD
